<?xml version="1.0" encoding="UTF-8"?>

<!-- generated on 2026-02-24T11:06:12.607951+01:00 by Eclipse SUMO sumo 1.26.0
-->

<sumoConfiguration xmlns:xsi="http://www.w3.org/2001/XMLSchema-instance" xsi:noNamespaceSchemaLocation="http://sumo.dlr.de/xsd/sumoConfiguration.xsd">

    <input>
        <net-file value="zona-sancho-el-fuerte.net.xml"/>
        <route-files value="zona-sancho-el-fuerte.rou.xml"/>
    </input>

</sumoConfiguration>
