<?xml version="1.0" encoding="UTF-8"?>

<!-- generated on 2026-02-23 14:15:28.086927 by randomTrips.py v1_24_0+0000-b72eb3fabc8
<configuration>
    <net-file value="D:\Proyectos\SUMO_DOCKER\red_carreteras\zona-sancho-el-fuerte.net.xml"/>
    <route-file value="C:\Users\Pedro\AppData\Local\Temp\tmp3lvbbxmy\mapa.rou.xml"/>
    <fringe-factor value="10"/>
    <period value="3.6"/>
</configuration>
-->

<routes xmlns:xsi="http://www.w3.org/2001/XMLSchema-instance" xsi:noNamespaceSchemaLocation="http://sumo.dlr.de/xsd/routes_file.xsd">
    <trip id="0" depart="0.00" from="26129171" to="-163001408#1.9"/>
    <trip id="1" depart="3.60" from="27653456#3.76" to="26129185#0.16.94"/>
    <trip id="2" depart="7.20" from="83335919#4" to="-273648190"/>
    <trip id="3" depart="10.80" from="188265972" to="-163591904#0"/>
    <trip id="4" depart="14.40" from="-8376669750" to="23051889#2"/>
    <trip id="5" depart="18.00" from="-163001408#3.11" to="-83335919#40"/>
    <trip id="6" depart="21.60" from="26129200#2.56" to="23528541.10"/>
    <trip id="7" depart="25.20" from="-837666977" to="23684197#3"/>
    <trip id="8" depart="28.80" from="383638708" to="-1180739361"/>
    <trip id="9" depart="32.40" from="383638708" to="267278905#0"/>
    <trip id="10" depart="36.00" from="163001408#1" to="-32823065#1.14"/>
    <trip id="11" depart="39.60" from="98026721" to="163710818#1.49.21"/>
    <trip id="12" depart="43.20" from="-23758276" to="-274800766#2"/>
    <trip id="13" depart="46.80" from="675596878#2" to="23758276.12"/>
    <trip id="14" depart="50.40" from="383638708" to="27643296"/>
    <trip id="15" depart="54.00" from="23558001#6" to="99206454#0.3"/>
    <trip id="16" depart="57.60" from="164639952#0" to="23528545#1.20"/>
    <trip id="17" depart="61.20" from="27643280#0" to="-22732925#0"/>
    <trip id="18" depart="64.80" from="-94225818" to="1198484288#0.103"/>
    <trip id="19" depart="68.40" from="-23528543.25" to="11300966#4.9"/>
    <trip id="20" depart="72.00" from="-237584730" to="1192487312#0"/>
    <trip id="21" depart="75.60" from="26129161#1" to="186765526#0"/>
    <trip id="22" depart="79.20" from="163816453#1" to="-837666979.71"/>
    <trip id="23" depart="82.80" from="1153449311#0" to="94225792#1"/>
    <trip id="24" depart="86.40" from="26129200#1" to="23758360#1.13"/>
    <trip id="25" depart="90.00" from="-27710655#1" to="27643295.13"/>
    <trip id="26" depart="93.60" from="-27710535#1" to="186765543#0"/>
    <trip id="27" depart="97.20" from="E20" to="24962008#0.12"/>
    <trip id="28" depart="100.80" from="23681975" to="26129300#0.88"/>
    <trip id="29" depart="104.40" from="539908076#0" to="27710655#0"/>
    <trip id="30" depart="108.00" from="-94225818.13" to="-163591904#2"/>
    <trip id="31" depart="111.60" from="134780131#4" to="1180791205#2"/>
    <trip id="32" depart="115.20" from="-83335910#1.56" to="94226155#1"/>
    <trip id="33" depart="118.80" from="83335910#10.7" to="162997697"/>
    <trip id="34" depart="122.40" from="26129312#2.135" to="188258576#2"/>
    <trip id="35" depart="126.00" from="83338133#2.61" to="20357603#1.52"/>
    <trip id="36" depart="129.60" from="1153445028#0.14" to="1154731647.42"/>
    <trip id="37" depart="133.20" from="23684197#3.20" to="1180791205#2"/>
    <trip id="38" depart="136.80" from="23817726" to="83338130#6"/>
    <trip id="39" depart="140.40" from="188258573#0.95" to="-974330678"/>
    <trip id="40" depart="144.00" from="E85.16" to="23051889#4"/>
    <trip id="41" depart="147.60" from="-23758276" to="-22732925#0.46"/>
    <trip id="42" depart="151.20" from="-24650879" to="24650879.9"/>
    <trip id="43" depart="154.80" from="32823065#1" to="189599778#0.79"/>
    <trip id="44" depart="158.40" from="-22756817#0.58" to="188258542#0.10"/>
    <trip id="45" depart="162.00" from="E85.16" to="23455243#0.131"/>
    <trip id="46" depart="165.60" from="-1180791205#2" to="27643279#1"/>
    <trip id="47" depart="169.20" from="274800755#0.15" to="235268596"/>
    <trip id="48" depart="172.80" from="1153449311#0" to="24962008#1"/>
    <trip id="49" depart="176.40" from="-24650879" to="189599783#5"/>
    <trip id="50" depart="180.00" from="189609907#1" to="94591013"/>
    <trip id="51" depart="183.60" from="83335910#10" to="1180791205#2"/>
    <trip id="52" depart="187.20" from="23051889#1" to="-675596878#2"/>
    <trip id="53" depart="190.80" from="83338133#0.68" to="76095125#0"/>
    <trip id="54" depart="194.40" from="1193003574#0" to="24962007.61"/>
    <trip id="55" depart="198.00" from="28754664" to="235268596"/>
    <trip id="56" depart="201.60" from="31566676#0" to="23455243#0.131"/>
    <trip id="57" depart="205.20" from="-1126652255#2" to="163285526"/>
    <trip id="58" depart="208.80" from="-1185105484#1" to="837666982"/>
    <trip id="59" depart="212.40" from="83335914#2" to="39742866"/>
    <trip id="60" depart="216.00" from="83335910#20" to="94590994.11"/>
    <trip id="61" depart="219.60" from="-23558057#1.9" to="22734019#1"/>
    <trip id="62" depart="223.20" from="-23051889#1" to="27653457#20"/>
    <trip id="63" depart="226.80" from="28754664" to="-27710534#10"/>
    <trip id="64" depart="230.40" from="208140905#0" to="23528545#0"/>
    <trip id="65" depart="234.00" from="1153445028#0.14" to="76095125#0.79"/>
    <trip id="66" depart="237.60" from="188265972" to="-837666981"/>
    <trip id="67" depart="241.20" from="23558057#1" to="27643296"/>
    <trip id="68" depart="244.80" from="-32823069#1.13" to="162997697"/>
    <trip id="69" depart="248.40" from="E85.16" to="25413950#0"/>
    <trip id="70" depart="252.00" from="-26129300#0" to="105899334#0-AddedOffRampEdge"/>
    <trip id="71" depart="255.60" from="162919732" to="23684197#2"/>
    <trip id="72" depart="259.20" from="-94225818.79" to="-99206454#1"/>
    <trip id="73" depart="262.80" from="-23051889#3.82" to="24650879.9"/>
    <trip id="74" depart="266.40" from="-94225818.13" to="83338133#4.76"/>
    <trip id="75" depart="270.00" from="75731747" to="-23758360#1"/>
    <trip id="76" depart="273.60" from="-94590994.38" to="26129161#2"/>
    <trip id="77" depart="277.20" from="-83335919#4" to="-27710655#1"/>
    <trip id="78" depart="280.80" from="871498000" to="23558001#6"/>
    <trip id="79" depart="284.40" from="20357669.14" to="27710655#2"/>
    <trip id="80" depart="288.00" from="-23758360#1" to="189599783#5"/>
    <trip id="81" depart="291.60" from="188265972" to="22664098"/>
    <trip id="82" depart="295.20" from="27651350#0.12" to="26129171.174.29"/>
    <trip id="83" depart="298.80" from="E13" to="-274800766#2"/>
    <trip id="84" depart="302.40" from="76095125#0.58" to="1154800528#1"/>
    <trip id="85" depart="306.00" from="-32823061#10" to="189754933#5.40"/>
    <trip id="86" depart="309.60" from="188265972" to="1192487312#0.19"/>
    <trip id="87" depart="313.20" from="105899328#1" to="837666978"/>
    <trip id="88" depart="316.80" from="23608882#0" to="-22756817#0.58"/>
    <trip id="89" depart="320.40" from="988814984" to="837666980"/>
    <trip id="90" depart="324.00" from="675596878#2" to="-431225056.14"/>
    <trip id="91" depart="327.60" from="22732920#2.39" to="-837666982"/>
    <trip id="92" depart="331.20" from="164639952#0" to="E22"/>
    <trip id="93" depart="334.80" from="1153445028#0.14" to="27710655#2"/>
    <trip id="94" depart="338.40" from="98026721" to="E86.4"/>
    <trip id="95" depart="342.00" from="23608882#0.164" to="274800755#5.68"/>
    <trip id="96" depart="345.60" from="-27653457#2" to="134780131#1.45"/>
    <trip id="97" depart="349.20" from="988814984" to="23684021"/>
    <trip id="98" depart="352.80" from="-22734385#1" to="23684021"/>
    <trip id="99" depart="356.40" from="-27653457#3.12" to="98026528.43"/>
    <trip id="100" depart="360.00" from="24962008#0" to="26129185#0"/>
    <trip id="101" depart="363.60" from="-94590994" to="-27710531"/>
    <trip id="102" depart="367.20" from="83335919#4" to="1154731647.42"/>
    <trip id="103" depart="370.80" from="24962008#0" to="24650878.11"/>
    <trip id="104" depart="374.40" from="188258596#0.8" to="23684021"/>
    <trip id="105" depart="378.00" from="23528549#2.10" to="901936253"/>
    <trip id="106" depart="381.60" from="-94592709" to="188258576#2"/>
    <trip id="107" depart="385.20" from="27364819" to="1363860302"/>
    <trip id="108" depart="388.80" from="134780131#5" to="27651351#0"/>
    <trip id="109" depart="392.40" from="-23051889#4" to="20357603#1"/>
    <trip id="110" depart="396.00" from="E85.16" to="E86.4"/>
    <trip id="111" depart="399.60" from="-23051889#4" to="-837666982"/>
    <trip id="112" depart="403.20" from="1153445028#0.14" to="901936251"/>
    <trip id="113" depart="406.80" from="83335914#2" to="83335910#10.7"/>
    <trip id="114" depart="410.40" from="163816453#1" to="-32823065#1.14"/>
    <trip id="115" depart="414.00" from="46896248#00" to="27364826"/>
    <trip id="116" depart="417.60" from="383638713" to="1363860302"/>
    <trip id="117" depart="421.20" from="264947490" to="94225818.8"/>
    <trip id="118" depart="424.80" from="-27364826" to="-27653457#1"/>
    <trip id="119" depart="428.40" from="-24650878" to="23528546"/>
    <trip id="120" depart="432.00" from="1154731467.118" to="23758360#0"/>
    <trip id="121" depart="435.60" from="27643313#1.116" to="-837666975"/>
    <trip id="122" depart="439.20" from="26129161#0" to="1180791205#2"/>
    <trip id="123" depart="442.80" from="675596878#2" to="-273648190"/>
    <trip id="124" depart="446.40" from="188265972" to="1185105484#1"/>
    <trip id="125" depart="450.00" from="-1154811543#1.23" to="27710535#1"/>
    <trip id="126" depart="453.60" from="26129161#2" to="1180791205#2"/>
    <trip id="127" depart="457.20" from="27653457#3.46" to="23528545#1.20"/>
    <trip id="128" depart="460.80" from="188685986#1" to="-1363856365"/>
    <trip id="129" depart="464.40" from="-23051889#4" to="83338103#1"/>
    <trip id="130" depart="468.00" from="83338130#0" to="23528541.113"/>
    <trip id="131" depart="471.60" from="46896248#1" to="23684021"/>
    <trip id="132" depart="475.20" from="-27643325#10" to="-27710534#00"/>
    <trip id="133" depart="478.80" from="105899328#1" to="-27643295.13"/>
    <trip id="134" depart="482.40" from="31566676#0" to="83338103#1.28"/>
    <trip id="135" depart="486.00" from="188258593#5" to="24650878.11"/>
    <trip id="136" depart="489.60" from="-27653457#1" to="849206202"/>
    <trip id="137" depart="493.20" from="76095130#1" to="E13"/>
    <trip id="138" depart="496.80" from="-163001408#2" to="27643313#1"/>
    <trip id="139" depart="500.40" from="383638706" to="717846328#0"/>
    <trip id="140" depart="504.00" from="32823061#0.14" to="-27643325#10"/>
    <trip id="141" depart="507.60" from="774961998#0" to="4806288#2"/>
    <trip id="142" depart="511.20" from="-837666979" to="374802237"/>
    <trip id="143" depart="514.80" from="189754933#4" to="159381333#3.82"/>
    <trip id="144" depart="518.40" from="32823065#1" to="1126652257"/>
    <trip id="145" depart="522.00" from="-163001408#1" to="-83335919#40"/>
    <trip id="146" depart="525.60" from="159381333#0.203" to="717846328#0.18"/>
    <trip id="147" depart="529.20" from="988814984" to="1192487312#0.9"/>
    <trip id="148" depart="532.80" from="26129171.174.29" to="188265968#0"/>
    <trip id="149" depart="536.40" from="94225792#1" to="-27653457#1"/>
    <trip id="150" depart="540.00" from="988814984" to="-675596878#2"/>
    <trip id="151" depart="543.60" from="98026721.81" to="1180791205#2"/>
    <trip id="152" depart="547.20" from="-24650878" to="189599783#5"/>
    <trip id="153" depart="550.80" from="27651350#0" to="162997697"/>
    <trip id="154" depart="554.40" from="-1154811543#0" to="837666979.74"/>
    <trip id="155" depart="558.00" from="23558057#0" to="27643279#0.7"/>
    <trip id="156" depart="561.60" from="27710531" to="26129161#2.8"/>
    <trip id="157" depart="565.20" from="163710822#1" to="-23758360#00.46.69"/>
    <trip id="158" depart="568.80" from="264947491" to="163702428"/>
    <trip id="159" depart="572.40" from="134780131#1.135" to="463024107"/>
    <trip id="160" depart="576.00" from="276433160" to="1426601358"/>
    <trip id="161" depart="579.60" from="1316386646" to="18924060"/>
    <trip id="162" depart="583.20" from="188258576#1" to="134780131#1.135"/>
    <trip id="163" depart="586.80" from="-26129300#2" to="189294350#1.96"/>
    <trip id="164" depart="590.40" from="94225818" to="26129185#0.16.94"/>
    <trip id="165" depart="594.00" from="83338119" to="23817727#1"/>
    <trip id="166" depart="597.60" from="1193003574#0" to="23528543"/>
    <trip id="167" depart="601.20" from="-1126652255#2" to="1193003587#0"/>
    <trip id="168" depart="604.80" from="18924060" to="23684021"/>
    <trip id="169" depart="608.40" from="26129312#2" to="210836555#2"/>
    <trip id="170" depart="612.00" from="189599778#0" to="-837666982"/>
    <trip id="171" depart="615.60" from="20357669.14.59" to="83338133#0"/>
    <trip id="172" depart="619.20" from="32823065#1" to="-46896248#1.84"/>
    <trip id="173" depart="622.80" from="-23558057#1" to="23060008#0"/>
    <trip id="174" depart="626.40" from="26129107#1" to="163710818#1.39"/>
    <trip id="175" depart="630.00" from="383638713" to="27651350#2.25"/>
    <trip id="176" depart="633.60" from="27364819" to="105899334#0-AddedOffRampEdge"/>
    <trip id="177" depart="637.20" from="-32823062#1" to="-163001408#1"/>
    <trip id="178" depart="640.80" from="105899328#1" to="22732904#2"/>
    <trip id="179" depart="644.40" from="675596878#2" to="-23758473"/>
    <trip id="180" depart="648.00" from="188258596#0.8" to="24650879.9"/>
    <trip id="181" depart="651.60" from="-32823062#1" to="264947491"/>
    <trip id="182" depart="655.20" from="22770553" to="1154731467"/>
    <trip id="183" depart="658.80" from="26129331#0" to="-1163366696"/>
    <trip id="184" depart="662.40" from="27710534#1" to="27710535#1"/>
    <trip id="185" depart="666.00" from="-24650878" to="189599783#0.68"/>
    <trip id="186" depart="669.60" from="23528545#1.29" to="-22756817#0.128"/>
    <trip id="187" depart="673.20" from="105899328#1" to="463024107"/>
    <trip id="188" depart="676.80" from="189754932#0" to="32823061#0.14"/>
    <trip id="189" depart="680.40" from="267278913.30" to="E22"/>
    <trip id="190" depart="684.00" from="24962008#0.12" to="94590994.11"/>
    <trip id="191" depart="687.60" from="83335919#4" to="23817698"/>
    <trip id="192" depart="691.20" from="27643316.9" to="23051889#1"/>
    <trip id="193" depart="694.80" from="460385787" to="23528543"/>
    <trip id="194" depart="698.40" from="83338104" to="27651345#1"/>
    <trip id="195" depart="702.00" from="208140904#0.7" to="1180738113"/>
    <trip id="196" depart="705.60" from="105899328#1" to="24962007"/>
    <trip id="197" depart="709.20" from="28754664" to="23060008#1"/>
    <trip id="198" depart="712.80" from="26129071#3" to="1185105484#1"/>
    <trip id="199" depart="716.40" from="-23051889#4" to="1193003571"/>
    <trip id="200" depart="720.00" from="1154731467" to="163001413#1"/>
    <trip id="201" depart="723.60" from="-94590994" to="264918733"/>
    <trip id="202" depart="727.20" from="27643280#0.8" to="-23528550.33"/>
    <trip id="203" depart="730.80" from="188258593#5" to="235268596"/>
    <trip id="204" depart="734.40" from="188258596#0.8" to="-837666977.44"/>
    <trip id="205" depart="738.00" from="188265972" to="83338133#4.76"/>
    <trip id="206" depart="741.60" from="23817698.14" to="264947490"/>
    <trip id="207" depart="745.20" from="717846328#1" to="27710535#0"/>
    <trip id="208" depart="748.80" from="164639952#0" to="-1163366696"/>
    <trip id="209" depart="752.40" from="163591904#10" to="27653456#0"/>
    <trip id="210" depart="756.00" from="717846327.14" to="94590994.11"/>
    <trip id="211" depart="759.60" from="188258596#0.8" to="27651349"/>
    <trip id="212" depart="763.20" from="-837666977.44" to="-974330678"/>
    <trip id="213" depart="766.80" from="189287750.45" to="-163218492"/>
    <trip id="214" depart="770.40" from="162919715#3" to="26129200#0.27"/>
    <trip id="215" depart="774.00" from="188258588#0" to="-431225056"/>
    <trip id="216" depart="777.60" from="20357479.14" to="-27710534#1"/>
    <trip id="217" depart="781.20" from="25587965#1" to="-163001408#3"/>
    <trip id="218" depart="784.80" from="188258569#0" to="23557993#2"/>
    <trip id="219" depart="788.40" from="-27364826" to="208140904#0"/>
    <trip id="220" depart="792.00" from="-22732910" to="186765543#0"/>
    <trip id="221" depart="795.60" from="-83335910#1.67" to="163591904#1"/>
    <trip id="222" depart="799.20" from="27710535#0" to="39742866"/>
    <trip id="223" depart="802.80" from="105899334#0" to="-264918733"/>
    <trip id="224" depart="806.40" from="-1185105484#1" to="235268596"/>
    <trip id="225" depart="810.00" from="26129298" to="27710655#2"/>
    <trip id="226" depart="813.60" from="26129300#0" to="27653456#0.21"/>
    <trip id="227" depart="817.20" from="94592708" to="-83335919#40"/>
    <trip id="228" depart="820.80" from="-1185105484#1" to="-32823061#10"/>
    <trip id="229" depart="824.40" from="-26129300#2" to="26129161#2.54"/>
    <trip id="230" depart="828.00" from="23745782#0.7" to="-94592709"/>
    <trip id="231" depart="831.60" from="-27710535#1" to="23758360#0.85"/>
    <trip id="232" depart="835.20" from="27710531" to="-27653457#0.32"/>
    <trip id="233" depart="838.80" from="383638713" to="98026528.43"/>
    <trip id="234" depart="842.40" from="-24650878" to="-163001408#2"/>
    <trip id="235" depart="846.00" from="134780129#0" to="26129185#0.16.94"/>
    <trip id="236" depart="849.60" from="98026721" to="188258581#0"/>
    <trip id="237" depart="853.20" from="274800755#5" to="24650879.9"/>
    <trip id="238" depart="856.80" from="-24650878" to="27710535#1"/>
    <trip id="239" depart="860.40" from="675596878#2" to="23758276.12"/>
    <trip id="240" depart="864.00" from="-26129300#0" to="E22"/>
    <trip id="241" depart="867.60" from="31566676#0" to="163970111"/>
    <trip id="242" depart="871.20" from="188685986#1.87" to="186765532#0.196"/>
    <trip id="243" depart="874.80" from="23194229#1.41" to="163710823#0"/>
    <trip id="244" depart="878.40" from="675596878#2" to="383638715"/>
    <trip id="245" depart="882.00" from="-24650878" to="98026528.43"/>
    <trip id="246" depart="885.60" from="26129161#1" to="383638715"/>
    <trip id="247" depart="889.20" from="27653456#0" to="98026528.43"/>
    <trip id="248" depart="892.80" from="1153591430.16" to="32823062#1"/>
    <trip id="249" depart="896.40" from="23558057#0" to="22732925#1"/>
    <trip id="250" depart="900.00" from="189287750.45" to="27643302#0"/>
    <trip id="251" depart="903.60" from="1153591007#0.20" to="46896248#1.13"/>
    <trip id="252" depart="907.20" from="460385787" to="-273648190"/>
    <trip id="253" depart="910.80" from="83335914#2" to="1154731467"/>
    <trip id="254" depart="914.40" from="189754934#2" to="23758473"/>
    <trip id="255" depart="918.00" from="164639952#0" to="-163218492"/>
    <trip id="256" depart="921.60" from="675596878#2" to="-83335910#1.67"/>
    <trip id="257" depart="925.20" from="-83335910#2" to="31566676#1"/>
    <trip id="258" depart="928.80" from="163001408#1" to="83335910#2"/>
    <trip id="259" depart="932.40" from="27643279#0.7" to="1185105484#1"/>
    <trip id="260" depart="936.00" from="-1180791205#2" to="94590994.11"/>
    <trip id="261" depart="939.60" from="-23558057#1.9" to="27643279#0.7"/>
    <trip id="262" depart="943.20" from="274800755#5" to="25413950#0"/>
    <trip id="263" depart="946.80" from="22734381#0" to="29217983#0"/>
    <trip id="264" depart="950.40" from="-23758276" to="1040598157"/>
    <trip id="265" depart="954.00" from="274800755#5.12" to="162990051"/>
    <trip id="266" depart="957.60" from="23777730#1" to="22732904#2"/>
    <trip id="267" depart="961.20" from="23557993#3.42" to="189599783#3"/>
    <trip id="268" depart="964.80" from="27710531" to="163702428"/>
    <trip id="269" depart="968.40" from="27643279#2" to="1185105484#1"/>
    <trip id="270" depart="972.00" from="105899328#1.151" to="-27710531"/>
    <trip id="271" depart="975.60" from="-32823062#1" to="-27710531"/>
    <trip id="272" depart="979.20" from="23558001#6" to="27653457#3.46"/>
    <trip id="273" depart="982.80" from="22732920#1.5" to="27643280#0.100"/>
    <trip id="274" depart="986.40" from="1155031710#1.72" to="-274800766#2"/>
    <trip id="275" depart="990.00" from="-32823062#1" to="1126652257"/>
    <trip id="276" depart="993.60" from="-27710686" to="-1363856365"/>
    <trip id="277" depart="997.20" from="23558001#2" to="1185105484#1"/>
    <trip id="278" depart="1000.80" from="99206454#0.3" to="23528546"/>
    <trip id="279" depart="1004.40" from="76095130#1" to="22734385#1"/>
    <trip id="280" depart="1008.00" from="774961998#0" to="23558057#1"/>
    <trip id="281" depart="1011.60" from="20357603#0.12" to="189609907#1"/>
    <trip id="282" depart="1015.20" from="94225818.8" to="22732910"/>
    <trip id="283" depart="1018.80" from="393203706" to="188265968#0"/>
    <trip id="284" depart="1022.40" from="-23051889#4" to="24650879.9"/>
    <trip id="285" depart="1026.00" from="-22734385#0" to="-31566676#10"/>
    <trip id="286" depart="1029.60" from="23745782#0" to="159381333#3"/>
    <trip id="287" depart="1033.20" from="E85.16" to="-27653457#3.12"/>
    <trip id="288" depart="1036.80" from="28754664" to="23758360#0.13"/>
    <trip id="289" depart="1040.40" from="32823065#1" to="10622112"/>
    <trip id="290" depart="1044.00" from="23528549#2" to="189754934#0.25"/>
    <trip id="291" depart="1047.60" from="E21" to="162919732"/>
    <trip id="292" depart="1051.20" from="25587965#1" to="23758360#10"/>
    <trip id="293" depart="1054.80" from="27653457#20" to="94590994.11"/>
    <trip id="294" depart="1058.40" from="-46896248#2" to="-837666980.9"/>
    <trip id="295" depart="1062.00" from="26129363" to="-32823065#1.14"/>
    <trip id="296" depart="1065.60" from="-27710655#2" to="-24650878.74"/>
    <trip id="297" depart="1069.20" from="-1154811543#1" to="189754934#0.25"/>
    <trip id="298" depart="1072.80" from="24962007.61" to="134780128#0"/>
    <trip id="299" depart="1076.40" from="-94590994" to="27364826.9"/>
    <trip id="300" depart="1080.00" from="27643279#2" to="20357479"/>
    <trip id="301" depart="1083.60" from="274800755#0.15" to="837666979"/>
    <trip id="302" depart="1087.20" from="32823061#1" to="24650878.11"/>
    <trip id="303" depart="1090.80" from="26129363.127" to="901936251"/>
    <trip id="304" depart="1094.40" from="188265972" to="23528541"/>
    <trip id="305" depart="1098.00" from="26129200#0.27" to="83338134#0.17"/>
    <trip id="306" depart="1101.60" from="410828249#1" to="-23758360#1.13"/>
    <trip id="307" depart="1105.20" from="-27710535#1" to="162997697"/>
    <trip id="308" depart="1108.80" from="27710531" to="23558001#2"/>
    <trip id="309" depart="1112.40" from="274800755#3" to="267278913"/>
    <trip id="310" depart="1116.00" from="94225818.8.69" to="23005183#4"/>
    <trip id="311" depart="1119.60" from="22756817#0.12.64" to="-26129300#0"/>
    <trip id="312" depart="1123.20" from="-186765526#0" to="189599783#5"/>
    <trip id="313" depart="1126.80" from="1363856365" to="1154811543#0"/>
    <trip id="314" depart="1130.40" from="-23758276" to="98026528.43"/>
    <trip id="315" depart="1134.00" from="46896248#2" to="23558058"/>
    <trip id="316" depart="1137.60" from="94592709" to="E86.4"/>
    <trip id="317" depart="1141.20" from="27364819" to="1185105484#0.11"/>
    <trip id="318" depart="1144.80" from="-186765526#0" to="27653456#3.76"/>
    <trip id="319" depart="1148.40" from="20357603#1" to="25413950#0"/>
    <trip id="320" depart="1152.00" from="83338133#4.76" to="-83335910#1.56"/>
    <trip id="321" depart="1155.60" from="23817727#0" to="24700320#1"/>
    <trip id="322" depart="1159.20" from="22756817#0" to="-273648190"/>
    <trip id="323" depart="1162.80" from="27364819" to="4806288#0.198"/>
    <trip id="324" depart="1166.40" from="159381333#3.82" to="26129363.127"/>
    <trip id="325" depart="1170.00" from="383638713" to="23528545#0.16"/>
    <trip id="326" depart="1173.60" from="189609913.81" to="162997697"/>
    <trip id="327" depart="1177.20" from="1363856365" to="98606767"/>
    <trip id="328" depart="1180.80" from="188258581#0" to="23051889#4"/>
    <trip id="329" depart="1184.40" from="-31566676#11" to="186765526#0"/>
    <trip id="330" depart="1188.00" from="27710655#1.11" to="24650878.11"/>
    <trip id="331" depart="1191.60" from="23608882#0" to="837666981"/>
    <trip id="332" depart="1195.20" from="-26129300#0" to="99206454#0.3"/>
    <trip id="333" depart="1198.80" from="-27710534#00" to="23528545#1"/>
    <trip id="334" depart="1202.40" from="23608882#0" to="-273648190"/>
    <trip id="335" depart="1206.00" from="E85.16" to="83338134#0.17"/>
    <trip id="336" depart="1209.60" from="189754933#5.40" to="-27653457#3"/>
    <trip id="337" depart="1213.20" from="463024107" to="23005183#0"/>
    <trip id="338" depart="1216.80" from="27643313#1" to="23051889#4"/>
    <trip id="339" depart="1220.40" from="1154731647.42" to="39742866"/>
    <trip id="340" depart="1224.00" from="23608882#0" to="188258542#0.10"/>
    <trip id="341" depart="1227.60" from="8376669740" to="23051889#4"/>
    <trip id="342" depart="1231.20" from="83335914#2" to="717846328#0"/>
    <trip id="343" depart="1234.80" from="1154800528#1.6" to="2794791930"/>
    <trip id="344" depart="1238.40" from="188258596#0.8" to="901936253"/>
    <trip id="345" depart="1242.00" from="1155031710#1.72" to="134780131#5"/>
    <trip id="346" depart="1245.60" from="23817727#1.5" to="E86.4"/>
    <trip id="347" depart="1249.20" from="23558057#0" to="163970111"/>
    <trip id="348" depart="1252.80" from="23608882#0" to="235268596"/>
    <trip id="349" depart="1256.40" from="189609913.81" to="163218491"/>
    <trip id="350" depart="1260.00" from="-32823061#0" to="264947491.154"/>
    <trip id="351" depart="1263.60" from="23758360#1" to="11300966#6"/>
    <trip id="352" depart="1267.20" from="303268440.46" to="-189599785"/>
    <trip id="353" depart="1270.80" from="27710531" to="27364826.9"/>
    <trip id="354" depart="1274.40" from="383638710" to="188258542#0.10"/>
    <trip id="355" depart="1278.00" from="264947490" to="383638712"/>
    <trip id="356" depart="1281.60" from="-163970111" to="23051888"/>
    <trip id="357" depart="1285.20" from="819529512#0.15" to="189609907#0"/>
    <trip id="358" depart="1288.80" from="23528550.8" to="20357603#0.12"/>
    <trip id="359" depart="1292.40" from="27651344" to="189286906#0"/>
    <trip id="360" depart="1296.00" from="26129312#2" to="-32823062#00"/>
    <trip id="361" depart="1299.60" from="26129200#2.56" to="46896248#1.13"/>
    <trip id="362" depart="1303.20" from="164639952#0" to="163001408#2"/>
    <trip id="363" depart="1306.80" from="27643316" to="27653457#2"/>
    <trip id="364" depart="1310.40" from="774961998#0" to="-163816453#1"/>
    <trip id="365" depart="1314.00" from="-23051889#0.10" to="24650879.9"/>
    <trip id="366" depart="1317.60" from="837666974.14" to="E86.4"/>
    <trip id="367" depart="1321.20" from="27710531" to="189599783#5"/>
    <trip id="368" depart="1324.80" from="-23758360#1.77" to="24650879.9"/>
    <trip id="369" depart="1328.40" from="774961998#0" to="189754932#0"/>
    <trip id="370" depart="1332.00" from="-186765526#0" to="303268440"/>
    <trip id="371" depart="1335.60" from="1192487319#0.18" to="186765543#0"/>
    <trip id="372" depart="1339.20" from="-276433160" to="23455243#0.131"/>
    <trip id="373" depart="1342.80" from="23745782#1.199" to="29217983#0"/>
    <trip id="374" depart="1346.40" from="-27710655#0.64" to="-26129200#2"/>
    <trip id="375" depart="1350.00" from="76095130#3" to="24650878.11"/>
    <trip id="376" depart="1353.60" from="-99206454#1" to="83338134#0.17"/>
    <trip id="377" depart="1357.20" from="-27643295.13" to="20357669.14.59"/>
    <trip id="378" depart="1360.80" from="10622639" to="1155031710#1"/>
    <trip id="379" depart="1364.40" from="-1180791205#2" to="32823062#0.8"/>
    <trip id="380" depart="1368.00" from="-27710534#0" to="189609913"/>
    <trip id="381" depart="1371.60" from="163001413#1.7" to="23684197#0.141"/>
    <trip id="382" depart="1375.20" from="26129161#2.8" to="189599783#0.14"/>
    <trip id="383" depart="1378.80" from="105899328#1" to="431225056.38"/>
    <trip id="384" depart="1382.40" from="-32823062#1" to="188258542#0.10"/>
    <trip id="385" depart="1386.00" from="22732920#1" to="1153445028#0.14"/>
    <trip id="386" depart="1389.60" from="23758360#1" to="23558058"/>
    <trip id="387" depart="1393.20" from="E85.16" to="134780131#1"/>
    <trip id="388" depart="1396.80" from="1154732202" to="23557993#3.42"/>
    <trip id="389" depart="1400.40" from="274800755#0.15" to="27651346#0"/>
    <trip id="390" depart="1404.00" from="23005183#3" to="83338133#4"/>
    <trip id="391" depart="1407.60" from="1180738113" to="31566676#1.10"/>
    <trip id="392" depart="1411.20" from="26129161#1.61" to="24650878.11"/>
    <trip id="393" depart="1414.80" from="27364826" to="27643279#1"/>
    <trip id="394" depart="1418.40" from="26129332.8.98" to="410828248#0"/>
    <trip id="395" depart="1422.00" from="26129084" to="83338133#2.61"/>
    <trip id="396" depart="1425.60" from="26129185#3" to="162997697"/>
    <trip id="397" depart="1429.20" from="189294350#1" to="23684021"/>
    <trip id="398" depart="1432.80" from="27651351#0" to="-273648190"/>
    <trip id="399" depart="1436.40" from="1192978874#0" to="27651349"/>
    <trip id="400" depart="1440.00" from="-27710655#2" to="-27710655#1"/>
    <trip id="401" depart="1443.60" from="23557993#3.42" to="83338134#0.17"/>
    <trip id="402" depart="1447.20" from="460385787" to="1163366696"/>
    <trip id="403" depart="1450.80" from="410828248#0.14.61" to="22732925#0"/>
    <trip id="404" depart="1454.40" from="383638708" to="27651346#1.57"/>